OPT_V9/Results/My_campus_w_initial_sub_3_active_25_03_14_05/powerflow_results_t1.txt
Pandapower Network Debug Info
==================================================

BUS:
       vm_pu     va_degree      p_mw    q_mvar
0   1.004361  1.492001e-01 -0.008218 -0.005099
1   1.006034  2.236643e-01 -0.004859 -0.003009
2   1.002116  2.977237e-01  0.002000  0.003000
3   1.000610  2.272629e-01  0.002500  0.004000
4   1.002928  1.593849e-01 -0.001410  0.000590
5   1.002389  7.653047e-02 -0.003949 -0.001439
6   1.000667  7.973017e-02  0.001200  0.001000
7   1.003519  1.305545e-01 -0.004883 -0.000447
8   1.001778  4.216001e-02 -0.007069 -0.003010
9   0.999977  3.232257e-04  0.002532  0.002532
10  0.999972  3.029861e-04  0.004243  0.002243
11  0.999968  3.042159e-04  0.004739  0.003739
12  1.000000  8.774363e-04  0.001858 -0.002142
13  0.999986  9.118576e-04  0.005704  0.003704
14  0.999990  9.326911e-04  0.005612  0.004612
15  0.999991  3.437709e-04  0.000000  0.000000
16  0.999991  3.434515e-04  0.000000  0.000000
17  1.000000  9.485847e-04  0.000000  0.000000
18  1.000000  9.469948e-04  0.000000  0.000000
19  1.000000  0.000000e+00 -0.003023 -0.012457
20  1.000000  1.497796e-06  0.000000  0.000000
21  1.000000  0.000000e+00  0.002876 -0.007899
22  1.000000  8.449391e-07  0.000000  0.000000
--------------------------------------------------

LINE:
    p_from_mw   q_from_mvar   p_to_mw  q_to_mvar         pl_mw       ql_mvar  i_from_ka   i_to_ka      i_ka  vm_from_pu  va_from_degree  vm_to_pu  va_to_degree  loading_percent
0    0.003013  8.456593e-03 -0.003013  -0.008457  7.883006e-08  6.146509e-08   0.000346  0.000346  0.000346    1.000000    1.497796e-06  0.999991      0.000344         0.150234
1   -0.002886  3.898794e-03  0.002887  -0.003899  6.329911e-08  4.935536e-08   0.000187  0.000187  0.000187    1.000000    8.449391e-07  1.000000      0.000949         0.081181
2    0.011514  8.513976e-03 -0.011514  -0.008514  1.585727e-07  1.236417e-07   0.000551  0.000551  0.000551    0.999991    3.437709e-04  0.999977      0.000323         0.239643
3    0.001858 -2.142311e-03 -0.001858   0.002142  2.780589e-09  2.168071e-09   0.000109  0.000109  0.000109    1.000000    9.485847e-04  1.000000      0.000877         0.047453
4    0.011316  8.315936e-03 -0.011316  -0.008316  1.078309e-07  8.407753e-08   0.000541  0.000541  0.000541    1.000000    9.485847e-04  0.999990      0.000933         0.235007
5   -0.008511 -1.057375e-03  0.008545   0.001084  3.440446e-05  2.682572e-05   0.012379  0.012379  0.012379    0.999991    3.434515e-04  1.004361      0.149200         5.382272
6   -0.002741 -4.328588e-04  0.002747   0.000438  5.974648e-06  4.658532e-06   0.004005  0.004005  0.004005    1.000000    9.469948e-04  1.002389      0.076530         1.741518
7   -0.004866 -4.344458e-04  0.004883   0.000447  1.612738e-05  1.257479e-05   0.007052  0.007052  0.007052    1.000000    9.469948e-04  1.003519      0.130555         3.066100
8   -0.008463 -2.407525e-03  0.008476   0.002418  1.331017e-05  1.037816e-05   0.012699  0.012699  0.012699    1.000000    9.469948e-04  1.001778      0.042160         5.521512
9   -0.008982 -5.981993e-03  0.008982   0.005982  4.027691e-08  3.140457e-08   0.000415  0.000415  0.000415    0.999972    3.029861e-04  0.999977      0.000323         0.180602
10  -0.004739 -3.738823e-03  0.004739   0.003739  1.782040e-08  1.389486e-08   0.000232  0.000232  0.000232    0.999968    3.042159e-04  0.999972      0.000303         0.101017
11   0.005704  3.704187e-03 -0.005704  -0.003704  2.262410e-08  1.764038e-08   0.000262  0.000262  0.000262    0.999990    9.326911e-04  0.999986      0.000912         0.113821
12   0.002847  2.551057e-07 -0.002842   0.000003  4.738143e-06  3.694408e-06   0.004085  0.004085  0.004085    1.006034    2.236643e-01  1.004361      0.149200         1.775957
13  -0.002500 -4.000001e-03  0.002515   0.004012  1.483787e-05  1.156933e-05   0.006804  0.006804  0.006804    1.000610    2.272629e-01  1.004361      0.149200         2.958364
14  -0.002000 -3.000002e-03  0.002012   0.003009  1.171011e-05  9.130565e-06   0.005193  0.005193  0.005193    1.002116    2.977237e-01  1.006034      0.223664         2.257902
15  -0.001407  5.922528e-04  0.001410  -0.000590  2.825909e-06  2.203408e-06   0.002200  0.002200  0.002200    1.001778    4.216001e-02  1.002928      0.159385         0.956377
16  -0.001200 -1.000000e-03  0.001202   0.001002  2.121488e-06  1.654159e-06   0.002253  0.002253  0.002253    1.000667    7.973017e-02  1.002389      0.076530         0.979619
--------------------------------------------------

TRAFO:
    p_hv_mw  q_hv_mvar   p_lv_mw  q_lv_mvar    pl_mw  ql_mvar   i_hv_ka   i_lv_ka  vm_hv_pu  va_hv_degree  vm_lv_pu  va_lv_degree  loading_percent
0 -0.008501  -0.000057  0.008511   0.001057  0.00001    0.001  0.000327  0.012379  0.999991      0.000344  0.999991  3.434515e-04         0.085766
1 -0.016060  -0.002275  0.016070   0.003275  0.00001    0.001  0.000624  0.023672  1.000000      0.000949  1.000000  9.469948e-04         0.164005
2  0.003023   0.012457 -0.003013  -0.008457  0.00001    0.004  0.000106  0.000346  1.000000      0.000000  1.000000  1.497796e-06         0.032045
3 -0.002876   0.007899  0.002886  -0.003899  0.00001    0.004  0.000069  0.000187  1.000000      0.000000  1.000000  8.449391e-07         0.021016
--------------------------------------------------
